Version 4
SHEET 1 3080 680
WIRE 256 -704 256 -720
WIRE 256 -576 256 -624
WIRE 224 -528 192 -528
WIRE 160 -416 128 -416
WIRE 0 -304 0 -320
WIRE 80 -304 0 -304
WIRE 128 -288 128 -352
WIRE 80 -272 80 -304
WIRE 80 -224 0 -224
WIRE -16 -176 -16 -192
WIRE -144 -48 -144 -64
WIRE -64 -48 -144 -48
WIRE -16 -32 -16 -96
WIRE -64 -16 -64 -48
WIRE 1200 -16 1200 -32
WIRE 1776 -16 1776 -32
WIRE 928 0 928 -16
WIRE 336 16 336 0
WIRE 624 16 624 0
WIRE 1488 16 1488 -16
WIRE -64 32 -144 32
WIRE -16 96 -16 48
WIRE 48 96 -16 96
WIRE 128 96 128 -208
WIRE 128 96 48 96
WIRE 336 144 336 96
WIRE 624 144 624 96
WIRE 928 144 928 80
WIRE 1200 144 1200 64
WIRE 1776 144 1776 64
WIRE 48 160 48 96
WIRE 1488 160 1488 96
WIRE 304 192 272 192
WIRE 592 192 560 192
WIRE 912 192 864 192
WIRE 1168 192 1136 192
WIRE 1744 192 1712 192
WIRE 16 208 -16 208
WIRE 1520 208 1424 208
WIRE -144 320 -144 304
WIRE -64 320 -144 320
WIRE -16 336 -16 272
WIRE 144 336 144 320
WIRE 224 336 144 336
WIRE 432 336 432 320
WIRE 512 336 432 336
WIRE 736 336 736 320
WIRE 816 336 736 336
WIRE 1008 336 1008 320
WIRE 1088 336 1008 336
WIRE 1296 336 1296 320
WIRE 1376 336 1296 336
WIRE 1584 336 1584 320
WIRE 1664 336 1584 336
WIRE -64 352 -64 320
WIRE 272 352 272 256
WIRE 560 352 560 256
WIRE 864 352 864 256
WIRE 1136 352 1136 256
WIRE 1424 352 1424 272
WIRE 1712 352 1712 256
WIRE 224 368 224 336
WIRE 512 368 512 336
WIRE 816 368 816 336
WIRE 1088 368 1088 336
WIRE 1376 368 1376 336
WIRE 1664 368 1664 336
WIRE -64 400 -144 400
WIRE 224 416 144 416
WIRE 512 416 432 416
WIRE 816 416 736 416
WIRE 1088 416 1008 416
WIRE 1376 416 1296 416
WIRE 1664 416 1584 416
WIRE -16 496 -16 416
WIRE 272 496 272 432
WIRE 272 496 -16 496
WIRE 560 496 560 432
WIRE 560 496 272 496
WIRE 864 496 864 432
WIRE 864 496 560 496
WIRE 1136 496 1136 432
WIRE 1136 496 864 496
WIRE 1424 496 1424 432
WIRE 1424 496 1136 496
WIRE 1712 496 1712 432
WIRE 1712 496 1424 496
FLAG 16 208 T1
FLAG 304 192 S_IN
IOPIN 304 192 In
FLAG 336 0 0
FLAG 624 0 0
FLAG 928 -16 0
FLAG 1200 -32 0
FLAG 1488 -16 0
FLAG -144 304 0
FLAG 144 320 0
FLAG 432 320 0
FLAG 736 320 0
FLAG 1008 320 0
FLAG 1296 320 0
FLAG 1776 -32 0
FLAG 1584 320 0
FLAG 1744 192 S_OUT
IOPIN 1744 192 Out
FLAG -144 -64 0
FLAG 0 -320 0
FLAG -16 -192 0
FLAG 160 -416 B
IOPIN 160 -416 In
FLAG 256 -720 0
FLAG 224 -528 A
IOPIN 224 -528 In
FLAG 592 192 C_IN
IOPIN 592 192 In
FLAG 912 192 T2
FLAG 1168 192 T3
FLAG 1520 208 C_OUT
IOPIN 1520 208 Out
SYMBOL MemSim+ECM_Nominal -64 160 R0
WINDOW 39 32 28 Bottom 2
SYMATTR SpiceLine w_init=0n
SYMATTR InstName X1
SYMBOL MemSim+ECM_Nominal 224 144 R0
WINDOW 39 32 28 Bottom 2
SYMATTR SpiceLine w_init=0n
SYMATTR InstName X2
SYMBOL MemSim+ECM_Nominal 512 144 R0
WINDOW 39 32 28 Bottom 2
SYMATTR SpiceLine w_init=3n
SYMATTR InstName X3
SYMBOL MemSim+ECM_Nominal 816 144 R0
WINDOW 39 32 28 Bottom 2
SYMATTR SpiceLine w_init=3n
SYMATTR InstName X4
SYMBOL MemSim+ECM_Nominal 1088 144 R0
WINDOW 39 32 28 Bottom 2
SYMATTR SpiceLine w_init=3n
SYMATTR InstName X5
SYMBOL MemSim+ECM_Nominal 1376 160 R0
WINDOW 39 -18 18 Bottom 2
SYMATTR SpiceLine w_init=3n
SYMATTR InstName X6
SYMBOL voltage 336 112 R180
WINDOW 0 24 96 Left 2
WINDOW 3 70 10 VRight 2
WINDOW 123 0 0 Left 2
WINDOW 39 0 0 Left 2
SYMATTR InstName V1
SYMATTR Value PWL file=SumV2.csv
SYMBOL voltage 624 112 R180
WINDOW 0 24 96 Left 2
WINDOW 3 66 13 VRight 2
WINDOW 123 0 0 Left 2
WINDOW 39 0 0 Left 2
SYMATTR InstName V3
SYMATTR Value PWL file=SumV3.csv
SYMBOL voltage 928 96 R180
WINDOW 0 24 96 Left 2
WINDOW 3 72 1 VRight 2
WINDOW 123 0 0 Left 2
WINDOW 39 0 0 Left 2
SYMATTR InstName V4
SYMATTR Value PWL file=SumV4.csv
SYMBOL voltage 1200 80 R180
WINDOW 0 24 96 Left 2
WINDOW 3 69 -25 VRight 2
WINDOW 123 0 0 Left 2
WINDOW 39 0 0 Left 2
SYMATTR InstName V5
SYMATTR Value PWL file=SumV5.csv
SYMBOL sw -16 320 R0
SYMATTR InstName S1
SYMATTR Value MYSW
SYMBOL voltage -144 416 R180
WINDOW 0 24 96 Left 2
WINDOW 3 63 -36 VRight 2
WINDOW 123 0 0 Left 2
WINDOW 39 0 0 Left 2
SYMATTR InstName V7
SYMATTR Value PWL file=SumV1_sw1.csv
SYMBOL sw 272 336 R0
SYMATTR InstName S2
SYMATTR Value MYSW
SYMBOL voltage 144 432 R180
WINDOW 0 24 96 Left 2
WINDOW 3 63 -36 VRight 2
WINDOW 123 0 0 Left 2
WINDOW 39 0 0 Left 2
SYMATTR InstName V8
SYMATTR Value PWL file=SumV1_sw2.csv
SYMBOL sw 560 336 R0
SYMATTR InstName S3
SYMATTR Value MYSW
SYMBOL voltage 432 432 R180
WINDOW 0 24 96 Left 2
WINDOW 3 63 -36 VRight 2
WINDOW 123 0 0 Left 2
WINDOW 39 0 0 Left 2
SYMATTR InstName V9
SYMATTR Value PWL file=SumV1_sw3.csv
SYMBOL sw 864 336 R0
SYMATTR InstName S4
SYMATTR Value MYSW
SYMBOL voltage 736 432 R180
WINDOW 0 24 96 Left 2
WINDOW 3 63 -36 VRight 2
WINDOW 123 0 0 Left 2
WINDOW 39 0 0 Left 2
SYMATTR InstName V10
SYMATTR Value PWL file=SumV1_sw4.csv
SYMBOL sw 1136 336 R0
SYMATTR InstName S5
SYMATTR Value MYSW
SYMBOL voltage 1008 432 R180
WINDOW 0 24 96 Left 2
WINDOW 3 63 -36 VRight 2
WINDOW 123 0 0 Left 2
WINDOW 39 0 0 Left 2
SYMATTR InstName V11
SYMATTR Value PWL file=SumV1_sw5.csv
SYMBOL sw 1424 336 R0
SYMATTR InstName S6
SYMATTR Value MYSW
SYMBOL voltage 1296 432 R180
WINDOW 0 24 96 Left 2
WINDOW 3 63 -36 VRight 2
WINDOW 123 0 0 Left 2
WINDOW 39 0 0 Left 2
SYMATTR InstName V12
SYMATTR Value PWL file=SumV1_sw6.csv
SYMBOL MemSim+ECM_Nominal 1664 144 R0
WINDOW 39 32 28 Bottom 2
SYMATTR SpiceLine w_init=0n
SYMATTR InstName X7
SYMBOL voltage 1488 112 R180
WINDOW 0 24 96 Left 2
WINDOW 3 69 -25 VRight 2
WINDOW 123 0 0 Left 2
WINDOW 39 0 0 Left 2
SYMATTR InstName V6
SYMATTR Value PWL file=SumV6.csv
SYMBOL sw 1712 336 R0
SYMATTR InstName S7
SYMATTR Value MYSW
SYMBOL voltage 1584 432 R180
WINDOW 0 24 96 Left 2
WINDOW 3 -36 100 VRight 2
WINDOW 123 0 0 Left 2
WINDOW 39 0 0 Left 2
SYMATTR InstName V13
SYMATTR Value PWL file=SumV1_sw7.csv
SYMBOL voltage 1776 80 R180
WINDOW 0 24 96 Left 2
WINDOW 3 69 -25 VRight 2
WINDOW 123 0 0 Left 2
WINDOW 39 0 0 Left 2
SYMATTR InstName V14
SYMATTR Value PWL file=SumV7.csv
SYMBOL sw -16 -48 R0
SYMATTR InstName S12
SYMATTR Value MYSW
SYMBOL voltage -144 48 R180
WINDOW 0 24 96 Left 2
WINDOW 3 63 -36 VRight 2
WINDOW 123 0 0 Left 2
WINDOW 39 0 0 Left 2
SYMATTR InstName V2
SYMATTR Value PWL file=SumV1_sw1.csv
SYMBOL sw 128 -304 R0
SYMATTR InstName S13
SYMATTR Value MYSW
SYMBOL voltage 0 -208 R180
WINDOW 0 24 96 Left 2
WINDOW 3 63 -36 VRight 2
WINDOW 123 0 0 Left 2
WINDOW 39 0 0 Left 2
SYMATTR InstName V22
SYMATTR Value PWL file=SumV1_sw1.csv
SYMBOL voltage -16 -80 R180
WINDOW 0 24 96 Left 2
WINDOW 3 70 10 VRight 2
WINDOW 123 0 0 Left 2
WINDOW 39 0 0 Left 2
SYMATTR InstName V23
SYMATTR Value PWL file=SumV2.csv
SYMBOL MemSim+ECM_Nominal 80 -464 R0
WINDOW 39 32 28 Bottom 2
SYMATTR SpiceLine w_init=0n
SYMATTR InstName X12
SYMBOL MemSim+ECM_Nominal 144 -576 R0
WINDOW 39 32 28 Bottom 2
SYMATTR SpiceLine w_init=3n
SYMATTR InstName X13
SYMBOL voltage 256 -608 R180
WINDOW 0 24 96 Left 2
WINDOW 3 66 13 VRight 2
WINDOW 123 0 0 Left 2
WINDOW 39 0 0 Left 2
SYMATTR InstName V24
SYMATTR Value PWL file=SumV3.csv
TEXT -16 576 Left 2 !.tran 270u
TEXT -16 536 Left 2 !.model MYSW SW(Ron=1n Roff=1000meg Vt=.5)
